Circuit: * C:\GitHub\FuncGen_Simulation\FuncGen[Sim]\electronica.asc

WARNING: Less than two connections to node NC_01.  This node is used by S:X2:2.
WARNING: Less than two connections to node NC_02.  This node is used by S:X2:3.
WARNING: Less than two connections to node NC_03.  This node is used by S:X2:4.
WARNING: Less than two connections to node NC_04.  This node is used by S:X2:5.
WARNING: Less than two connections to node NC_05.  This node is used by S:X2:6.
WARNING: Less than two connections to node NC_06.  This node is used by S:X2:7.
Early termination of direct N-R iteration.
Direct Newton iteration failed to find .op point.  (Use ".option noopiter" to skip.)
Starting Gmin stepping
Gmin = 10
vernier = 0.5
vernier = 0.25
vernier = 0.125
Gmin = 5.5165
vernier = 0.0625
vernier = 0.03125
vernier = 0.015625
vernier = 0.0078125
Gmin = 5.49501
vernier = 0.00390625
vernier = 0.00195313
vernier = 0.000976563
vernier = 0.000488281
Gmin = 5.50104
Gmin = 0
Gmin stepping failed

Starting source stepping with srcstepmethod=0
Source Step = 3.0303%
Source Step = 33.3333%
Source Step = 63.6364%
Source Step = 93.9394%
Source stepping succeeded in finding the operating point.

Ignoring empty pin current: Ix(x2:v+)
Ignoring empty pin current: Ix(x2:vee)
Ignoring empty pin current: Ix(x2:v+)
Ignoring empty pin current: Ix(x2:vee)

Date: Thu Jan 07 11:01:38 2021
Total elapsed time: 5.838 seconds.

tnom = 27
temp = 27
method = modified trap
totiter = 10816
traniter = 9067
tranpoints = 4267
accept = 3976
rejected = 291
matrix size = 310
fillins = 3362
solver = Normal
Thread vector: 29.9/14.1[6] 15.9/6.8[6] 14.1/4.3[6] 2.4/5.6[1]  2592/500
Matrix Compiler1: 881.14 KB object code size  154.4/67.7/[32.6]
Matrix Compiler2: 82.13 KB object code size  20.8/14.1/[5.6]

